Version 4
SHEET 1 880 680
WIRE 432 0 160 0
WIRE 160 16 160 0
WIRE 432 128 432 0
WIRE 160 176 160 96
WIRE 256 224 160 224
WIRE 160 320 160 272
WIRE 256 320 256 224
WIRE 432 320 432 208
FLAG 160 320 0
FLAG 256 320 0
FLAG 432 320 0
SYMBOL nmos4 112 176 R0
SYMATTR InstName M1
SYMBOL res 144 0 R0
SYMATTR InstName R1
SYMBOL Misc\\battery 432 112 R0
SYMATTR InstName V1
SYMATTR Value 3
