Version 4
SHEET 1 880 680
WIRE 32 144 -192 144
WIRE 144 144 112 144
WIRE 32 272 -16 272
WIRE 144 272 144 144
WIRE 144 272 112 272
WIRE 224 272 144 272
WIRE 272 272 224 272
WIRE 352 272 336 272
WIRE 400 272 352 272
WIRE 448 272 400 272
WIRE 560 272 528 272
WIRE 672 272 560 272
WIRE 688 272 672 272
WIRE -192 352 -192 144
WIRE -16 352 -16 272
WIRE 144 352 144 272
WIRE 400 352 400 272
WIRE 560 368 560 272
WIRE 672 368 672 272
WIRE 224 384 224 272
WIRE 336 384 336 320
WIRE 336 384 224 384
WIRE -192 480 -192 432
WIRE -16 480 -16 432
WIRE 144 480 144 432
WIRE 288 480 288 320
WIRE 400 480 400 432
WIRE 560 480 560 432
WIRE 672 480 672 448
FLAG -192 480 0
FLAG -16 480 0
FLAG 144 480 0
FLAG 400 480 0
FLAG 560 480 0
FLAG 672 480 0
FLAG 288 480 0
SYMBOL voltage -192 336 R0
SYMATTR InstName Vc
SYMATTR Value SINE(0 10 107k)
SYMBOL voltage -16 336 R0
SYMATTR InstName Vs
SYMATTR Value SINE(0 3 1k)
SYMBOL res 128 336 R0
SYMATTR InstName R1
SYMATTR Value 10k
SYMBOL res 128 256 R90
WINDOW 0 0 56 VBottom 2
WINDOW 3 32 56 VTop 2
SYMATTR InstName R2
SYMATTR Value 10k
SYMBOL res 128 128 R90
WINDOW 0 0 56 VBottom 2
WINDOW 3 32 56 VTop 2
SYMATTR InstName R3
SYMATTR Value 10k
SYMBOL res 384 336 R0
SYMATTR InstName R4
SYMATTR Value 3.3k
SYMBOL res 544 256 R90
WINDOW 0 0 56 VBottom 2
WINDOW 3 32 56 VTop 2
SYMATTR InstName R5
SYMATTR Value 12k
SYMBOL cap 544 368 R0
SYMATTR InstName C1
SYMATTR Value 2.2n
SYMBOL ind 656 352 R0
SYMATTR InstName L1
SYMATTR Value 1m
SYMBOL sw 256 272 R270
SYMATTR InstName S1
TEXT -226 504 Left 2 !.tran 25m
TEXT 16 -176 Left 2 !.model SW SW(Vt=0.7 Vh=0.01)
