Version 4
SHEET 1 1604 908
WIRE 784 -112 304 -112
WIRE 784 16 784 -112
WIRE 640 48 640 -16
WIRE 192 144 96 144
WIRE 304 144 304 -112
WIRE 304 144 272 144
WIRE 336 144 304 144
WIRE 576 160 576 96
WIRE 576 160 400 160
WIRE 640 160 640 144
WIRE 784 160 784 96
WIRE 784 160 640 160
WIRE 848 160 784 160
WIRE 336 176 304 176
WIRE 640 176 640 160
WIRE 848 192 848 160
WIRE 96 208 96 144
WIRE 576 224 576 160
WIRE 304 288 304 176
WIRE 640 336 640 272
FLAG 416 736 0
FLAG 416 672 0
FLAG 416 592 Vcc
FLAG 416 816 Vee
FLAG 368 128 Vcc
FLAG 368 192 Vee
FLAG 304 288 0
FLAG 96 288 0
FLAG 640 336 Vee
FLAG 640 -16 Vcc
FLAG 848 272 0
FLAG 848 160 OUT
SYMBOL Misc\\battery 416 576 R0
SYMATTR InstName V1
SYMATTR Value 12
SYMBOL Misc\\battery 416 720 R0
SYMATTR InstName V2
SYMATTR Value 12
SYMBOL Opamps\\opamp2 368 96 R0
SYMATTR InstName U1
SYMATTR Value UA741
SYMBOL voltage 96 192 R0
WINDOW 123 24 132 Left 2
WINDOW 39 0 0 Left 2
WINDOW 3 24 44 Left 2
SYMATTR Value2 AC 1
SYMATTR Value SINE(0 100m 1k)
SYMATTR InstName V3
SYMBOL res 288 128 R90
WINDOW 0 0 56 VBottom 2
WINDOW 3 32 56 VTop 2
SYMATTR InstName R1
SYMATTR Value 47k
SYMBOL npn 576 48 R0
SYMATTR InstName Q1
SYMATTR Value 2N2222
SYMBOL pnp 576 272 M180
SYMATTR InstName Q2
SYMATTR Value 2N2907
SYMBOL res 768 0 R0
SYMATTR InstName R2
SYMATTR Value 470k
SYMBOL res 832 176 R0
SYMATTR InstName Rload
SYMATTR Value 1
TEXT 104 512 Left 2 !.lib lf356.mod
TEXT 104 480 Left 2 !.tran 25m
TEXT 104 448 Left 2 !.options plotwinsize=0
TEXT 104 416 Left 2 !.four 1k V(out)
TEXT 104 552 Left 2 !.option cshunt=1e-12
TEXT 104 584 Left 2 !.lib ua741.301
