* DATE: Oct 13/11
* LOT: V11L                  WAF: 7197
* Temperature_parameters=Default
.MODEL CMOSN NMOS (                                LEVEL   = 49
+VERSION = 3.1            TNOM    = 27             TOX     = 1.42E-8
+XJ      = 1.5E-7         NCH     = 1.7E17         VTH0    = 0.6411523
+K1      = 0.8687083      K2      = -0.0852395     K3      = 26.1121444
+K3B     = -8.3384039     W0      = 1E-8           NLX     = 1.063778E-9
+DVT0W   = 0              DVT1W   = 0              DVT2W   = 0
+DVT0    = 0.8009049      DVT1    = 0.3971616      DVT2    = -0.5
+U0      = 454.5474058    UA      = 1E-13          UB      = 1.41332E-18
+UC      = 1.86643E-12    VSAT    = 1.982902E5     A0      = 0.8107957
+AGS     = 0.1320018      B0      = 1.292393E-6    B1      = 5E-6
+KETA    = -7.503206E-3   A1      = 1.298492E-4    A2      = 0.3
+RDSW    = 1.171934E3     PRWG    = 0.0866685      PRWB    = -0.0189653
+WR      = 1              WINT    = 1.755035E-7    LINT    = 8.705476E-8
+XL      = 1E-7           XW      = 0              DWG     = 2.219467E-9
+DWB     = 2.934613E-8    VOFF    = -1.366211E-4   NFACTOR = 0.8108577
+CIT     = 0              CDSC    = 2.4E-4         CDSCD   = 0
+CDSCB   = 0              ETA0    = 2.804673E-3    ETAB    = -3.229532E-4
+DSUB    = 0.0653362      PCLM    = 2.1480697      PDIBLC1 = 5.881068E-4
+PDIBLC2 = 2.116916E-3    PDIBLCB = 0.1047169      DROUT   = 3.45494E-3
+PSCBE1  = 8E10           PSCBE2  = 1.502056E-8    PVAG    = 0
+DELTA   = 0.01           RSH     = 84.6           MOBMOD  = 1
+PRT     = 0              UTE     = -1.5           KT1     = -0.11
+KT1L    = 0              KT2     = 0.022          UA1     = 4.31E-9
+UB1     = -7.61E-18      UC1     = -5.6E-11       AT      = 3.3E4
+WL      = 0              WLN     = 1              WW      = 0
+WWN     = 1              WWL     = 0              LL      = 0
+LLN     = 1              LW      = 0              LWN     = 1
+LWL     = 0              CAPMOD  = 2              XPART   = 0.5
+CGDO    = 1.89E-10       CGSO    = 1.89E-10       CGBO    = 1E-9
+CJ      = 4.261755E-4    PB      = 0.8482016      MJ      = 0.4326766
+CJSW    = 3.344281E-10   PBSW    = 0.8            MJSW    = 0.2019414
+CJSWG   = 1.64E-10       PBSWG   = 0.8            MJSWG   = 0.2019414
+CF      = 0              PVTH0   = 3.249769E-3    PRDSW   = 230.9847454
+PK2     = -0.0754049     WKETA   = 2.503364E-3    LKETA   = 3.606834E-3     )
*
.MODEL CMOSP PMOS (                                LEVEL   = 49
+VERSION = 3.1            TNOM    = 27             TOX     = 1.42E-8
+XJ      = 1.5E-7         NCH     = 1.7E17         VTH0    = -0.9152268
+K1      = 0.553472       K2      = 7.871921E-3    K3      = 1.4894229
+K3B     = 0.024928       W0      = 1E-8           NLX     = 1.002614E-9
+DVT0W   = 0              DVT1W   = 0              DVT2W   = 0
+DVT0    = 0.562667       DVT1    = 0.3064583      DVT2    = -0.3
+U0      = 201.3603195    UA      = 2.408572E-9    UB      = 1E-21
+UC      = -1E-10         VSAT    = 7.762453E4     A0      = 0.7616978
+AGS     = 0.1081785      B0      = 5.611458E-7    B1      = 7.767182E-9
+KETA    = -4.865785E-3   A1      = 1.363859E-3    A2      = 0.7560318
+RDSW    = 3E3            PRWG    = -0.0260688     PRWB    = -0.0518397
+WR      = 1              WINT    = 2.370297E-7    LINT    = 1.270513E-7
+XL      = 1E-7           XW      = 0              DWG     = 5.805442E-9
+DWB     = -1.051717E-8   VOFF    = -0.0620394     NFACTOR = 0.8999885
+CIT     = 0              CDSC    = 2.4E-4         CDSCD   = 0
+CDSCB   = 0              ETA0    = 3.81997E-4     ETAB    = -0.2
+DSUB    = 1              PCLM    = 2.4172623      PDIBLC1 = 0.0414719
+PDIBLC2 = 3.120264E-3    PDIBLCB = -0.0366384     DROUT   = 0.249426
+PSCBE1  = 1E8            PSCBE2  = 3.394931E-9    PVAG    = 2.957943E-3
+DELTA   = 0.01           RSH     = 108.5          MOBMOD  = 1
+PRT     = 0              UTE     = -1.5           KT1     = -0.11
+KT1L    = 0              KT2     = 0.022          UA1     = 4.31E-9
+UB1     = -7.61E-18      UC1     = -5.6E-11       AT      = 3.3E4
+WL      = 0              WLN     = 1              WW      = 0
+WWN     = 1              WWL     = 0              LL      = 0
+LLN     = 1              LW      = 0              LWN     = 1
+LWL     = 0              CAPMOD  = 2              XPART   = 0.5
+CGDO    = 2.29E-10       CGSO    = 2.29E-10       CGBO    = 1E-9
+CJ      = 7.149816E-4    PB      = 0.8791663      MJ      = 0.4854245
+CJSW    = 2.372517E-10   PBSW    = 0.8            MJSW    = 0.2261452
+CJSWG   = 6.4E-11        PBSWG   = 0.8            MJSWG   = 0.2261452
+CF      = 0              PVTH0   = 5.98016E-3     PRDSW   = 14.8598424
+PK2     = 3.73981E-3     WKETA   = 1.236911E-3    LKETA   = -9.223727E-3)
*
